<?xml version="1.0" encoding="UTF-8"?>

<!-- generated on 2026-07-13T20:12:04.025343+03:00 by Eclipse SUMO netconvert 1.27.0
<netconvertConfiguration xmlns:xsi="http://www.w3.org/2001/XMLSchema-instance" xsi:noNamespaceSchemaLocation="http://sumo.dlr.de/xsd/netconvertConfiguration.xsd">

    <input>
        <node-files value="highway535b.nod.xml"/>
        <edge-files value="highway535b.edg.xml"/>
    </input>

    <output>
        <output-file value="highway535b.net.xml"/>
    </output>

</netconvertConfiguration>
-->

<net version="1.20" junctionCornerDetail="5" limitTurnSpeed="5.50" xmlns:xsi="http://www.w3.org/2001/XMLSchema-instance" xsi:noNamespaceSchemaLocation="http://sumo.dlr.de/xsd/net_file.xsd">

    <location netOffset="0.00,0.00" convBoundary="0.00,0.00,635.00,0.00" origBoundary="0.00,0.00,635.00,0.00" projParameter="!"/>

    <edge id=":B_0" function="internal">
        <lane id=":B_0_0" index="0" speed="18.53" length="8.00" shape="531.00,-4.80 539.00,-4.80"/>
        <lane id=":B_0_1" index="1" speed="18.53" length="8.00" shape="531.00,-1.60 539.00,-1.60"/>
    </edge>

    <edge id="AB" from="A" to="B" priority="-1">
        <lane id="AB_0" index="0" speed="29.06" length="531.00" shape="-0.00,-8.00 531.00,-8.00"/>
        <lane id="AB_1" index="1" speed="29.06" length="531.00" shape="-0.00,-4.80 531.00,-4.80"/>
        <lane id="AB_2" index="2" speed="29.06" length="531.00" shape="-0.00,-1.60 531.00,-1.60"/>
    </edge>
    <edge id="BC" from="B" to="C" priority="-1">
        <lane id="BC_0" index="0" speed="8.00" length="96.00" shape="539.00,-4.80 635.00,-4.80"/>
        <lane id="BC_1" index="1" speed="8.00" length="96.00" shape="539.00,-1.60 635.00,-1.60"/>
    </edge>

    <junction id="A" type="dead_end" x="0.00" y="0.00" incLanes="" intLanes="" shape="-0.00,0.00 -0.00,-9.60"/>
    <junction id="B" type="priority" x="535.00" y="0.00" incLanes="AB_0 AB_1 AB_2" intLanes=":B_0_0 :B_0_1" shape="539.00,0.00 539.00,-6.40 535.97,-7.23 534.03,-8.77 532.79,-9.36 531.00,-9.60 531.00,0.00">
        <request index="0" response="00" foes="00" cont="0"/>
        <request index="1" response="00" foes="00" cont="0"/>
    </junction>
    <junction id="C" type="dead_end" x="635.00" y="0.00" incLanes="BC_0 BC_1" intLanes="" shape="635.00,-6.40 635.00,0.00"/>

    <connection from="AB" to="BC" fromLane="1" toLane="0" via=":B_0_0" dir="s" state="M"/>
    <connection from="AB" to="BC" fromLane="2" toLane="1" via=":B_0_1" dir="s" state="M"/>

    <connection from=":B_0" to="BC" fromLane="0" toLane="0" dir="s" state="M"/>
    <connection from=":B_0" to="BC" fromLane="1" toLane="1" dir="s" state="M"/>

</net>
