<?xml version="1.0" encoding="UTF-8"?>

<!-- generated on 2026-06-26T16:06:08.141139+03:00 by Eclipse SUMO netconvert 1.27.0
<netconvertConfiguration xmlns:xsi="http://www.w3.org/2001/XMLSchema-instance" xsi:noNamespaceSchemaLocation="http://sumo.dlr.de/xsd/netconvertConfiguration.xsd">

    <input>
        <node-files value="sumo/highway.nod.xml"/>
        <edge-files value="sumo/highway.edg.xml"/>
    </input>

    <output>
        <output-file value="sumo/highway.net.xml"/>
    </output>

</netconvertConfiguration>
-->

<net version="1.20" junctionCornerDetail="5" limitTurnSpeed="5.50" xmlns:xsi="http://www.w3.org/2001/XMLSchema-instance" xsi:noNamespaceSchemaLocation="http://sumo.dlr.de/xsd/net_file.xsd">

    <location netOffset="0.00,0.00" convBoundary="0.00,0.00,10000.00,0.00" origBoundary="0.00,0.00,10000.00,0.00" projParameter="!"/>

    <edge id=":A_0" function="internal">
        <lane id=":A_0_0" index="0" speed="3.65" length="4.67" shape="0.00,1.60 -1.20,0.80 -1.60,0.00 -1.20,-0.80 0.00,-1.60"/>
    </edge>
    <edge id=":B_0" function="internal">
        <lane id=":B_0_0" index="0" speed="3.65" length="4.67" shape="10000.00,-1.60 10001.20,-0.80 10001.60,0.00 10001.20,0.80 10000.00,1.60"/>
    </edge>

    <edge id="AB" from="A" to="B" priority="-1">
        <lane id="AB_0" index="0" speed="33.33" length="10000.00" shape="0.00,-8.00 10000.00,-8.00"/>
        <lane id="AB_1" index="1" speed="33.33" length="10000.00" shape="0.00,-4.80 10000.00,-4.80"/>
        <lane id="AB_2" index="2" speed="33.33" length="10000.00" shape="0.00,-1.60 10000.00,-1.60"/>
    </edge>
    <edge id="BA" from="B" to="A" priority="-1">
        <lane id="BA_0" index="0" speed="33.33" length="10000.00" shape="10000.00,8.00 0.00,8.00"/>
        <lane id="BA_1" index="1" speed="33.33" length="10000.00" shape="10000.00,4.80 0.00,4.80"/>
        <lane id="BA_2" index="2" speed="33.33" length="10000.00" shape="10000.00,1.60 0.00,1.60"/>
    </edge>

    <junction id="A" type="priority" x="0.00" y="0.00" incLanes="BA_0 BA_1 BA_2" intLanes=":A_0_0" shape="0.00,0.00 0.00,9.60 0.00,0.00">
        <request index="0" response="0" foes="0" cont="0"/>
    </junction>
    <junction id="B" type="priority" x="10000.00" y="0.00" incLanes="AB_0 AB_1 AB_2" intLanes=":B_0_0" shape="10000.00,0.00 10000.00,-9.60 10000.00,0.00">
        <request index="0" response="0" foes="0" cont="0"/>
    </junction>

    <connection from="AB" to="BA" fromLane="2" toLane="2" via=":B_0_0" dir="t" state="M"/>
    <connection from="BA" to="AB" fromLane="2" toLane="2" via=":A_0_0" dir="t" state="M"/>

    <connection from=":A_0" to="AB" fromLane="0" toLane="2" dir="t" state="M"/>
    <connection from=":B_0" to="BA" fromLane="0" toLane="2" dir="t" state="M"/>

</net>
