<edges>
    <edge id="AB" from="A" to="B" numLanes="3" speed="33.33"/>
    <edge id="BA" from="B" to="A" numLanes="3" speed="33.33"/>
</edges>
