<?xml version="1.0" encoding="UTF-8"?>

<!-- generated on 2026-07-13T20:08:20.248046+03:00 by Eclipse SUMO netconvert 1.27.0
<netconvertConfiguration xmlns:xsi="http://www.w3.org/2001/XMLSchema-instance" xsi:noNamespaceSchemaLocation="http://sumo.dlr.de/xsd/netconvertConfiguration.xsd">

    <input>
        <node-files value="highway535.nod.xml"/>
        <edge-files value="highway535.edg.xml"/>
    </input>

    <output>
        <output-file value="highway535.net.xml"/>
    </output>

</netconvertConfiguration>
-->

<net version="1.20" junctionCornerDetail="5" limitTurnSpeed="5.50" xmlns:xsi="http://www.w3.org/2001/XMLSchema-instance" xsi:noNamespaceSchemaLocation="http://sumo.dlr.de/xsd/net_file.xsd">

    <location netOffset="0.00,0.00" convBoundary="0.00,0.00,535.00,0.00" origBoundary="0.00,0.00,535.00,0.00" projParameter="!"/>

    <edge id="AB" from="A" to="B" priority="-1">
        <lane id="AB_0" index="0" speed="29.06" length="535.00" shape="-0.00,-8.00 535.00,-8.00"/>
        <lane id="AB_1" index="1" speed="29.06" length="535.00" shape="-0.00,-4.80 535.00,-4.80"/>
        <lane id="AB_2" index="2" speed="29.06" length="535.00" shape="-0.00,-1.60 535.00,-1.60"/>
    </edge>

    <junction id="A" type="dead_end" x="0.00" y="0.00" incLanes="" intLanes="" shape="-0.00,0.00 -0.00,-9.60"/>
    <junction id="B" type="dead_end" x="535.00" y="0.00" incLanes="AB_0 AB_1 AB_2" intLanes="" shape="535.00,-9.60 535.00,0.00"/>

</net>
